{"date_created":"2018-04-11T15:39:05-0000","history":"Created on 2018-04-11T15:39:05-0000, D-Flow FM","date_modified":"2018-04-11T15:39:05-0000","references":"http://www.deltares.nl","source":"Deltares, D-Flow FM Version 1.1.273.55242, Apr 11 2018, 15:09:43, model","institution":"Deltares","Conventions":"CF-1.5 Deltares-0.1"}