{
    "zarr_consolidated_format": 1,
    "metadata": {
        "time/.zattrs": {
            "units": "seconds since 1991-01-01 00:00:00",
            "add_offset": 0.0,
            "_ARRAY_DIMENSIONS": [
                "time"
            ],
            "scale_factor": 1.0,
            "standard_name": "time"
        },
        "y_velocity/.zarray": {
            "dtype": "<i2",
            "filters": null,
            "shape": [
                34561,
                3
            ],
            "order": "C",
            "zarr_format": 2,
            "chunks": [
                34561,
                3
            ],
            "fill_value": null,
            "compressor": {
                "blocksize": 0,
                "id": "blosc",
                "clevel": 5,
                "cname": "lz4",
                "shuffle": 1
            }
        },
        ".zattrs": {
            "date_created": "2018-04-11T15:39:05-0000",
            "history": "Created on 2018-04-11T15:39:05-0000, D-Flow FM",
            "date_modified": "2018-04-11T15:39:05-0000",
            "references": "http://www.deltares.nl",
            "source": "Deltares, D-Flow FM Version 1.1.273.55242, Apr 11 2018, 15:09:43, model",
            "institution": "Deltares",
            "Conventions": "CF-1.5 Deltares-0.1"
        },
        "time/.zarray": {
            "dtype": "<f8",
            "filters": null,
            "shape": [
                34561
            ],
            "order": "C",
            "zarr_format": 2,
            "chunks": [
                34561
            ],
            "fill_value": null,
            "compressor": {
                "blocksize": 0,
                "id": "blosc",
                "clevel": 5,
                "cname": "lz4",
                "shuffle": 1
            }
        },
        "station_name/.zattrs": {
            "cf_role": "timeseries_id",
            "long_name": "observation station name",
            "_ARRAY_DIMENSIONS": [
                "stations"
            ]
        },
        "station_x_coordinate/.zarray": {
            "dtype": "<f8",
            "filters": null,
            "shape": [
                34561,
                3
            ],
            "order": "C",
            "zarr_format": 2,
            "chunks": [
                34561,
                3
            ],
            "fill_value": null,
            "compressor": {
                "blocksize": 0,
                "id": "blosc",
                "clevel": 5,
                "cname": "lz4",
                "shuffle": 1
            }
        },
        "y_velocity/.zattrs": {
            "units": "m s-1",
            "coordinates": "station_x_coordinate station_y_coordinate station_name",
            "add_offset": 0.0,
            "long_name": "flow element center velocity vector, y-component",
            "_ARRAY_DIMENSIONS": [
                "time",
                "stations"
            ],
            "scale_factor": 0.01,
            "standard_name": "sea_water_y_velocity",
            "_FillValue": -999.0
        },
        "x_velocity/.zattrs": {
            "units": "m s-1",
            "coordinates": "station_x_coordinate station_y_coordinate station_name",
            "add_offset": 0.0,
            "long_name": "flow element center velocity vector, x-component",
            "_ARRAY_DIMENSIONS": [
                "time",
                "stations"
            ],
            "scale_factor": 0.01,
            "standard_name": "sea_water_x_velocity",
            "_FillValue": -999.0
        },
        ".zgroup": {
            "zarr_format": 2
        },
        "station_name/.zarray": {
            "dtype": "<S64",
            "filters": null,
            "shape": [
                3
            ],
            "order": "C",
            "zarr_format": 2,
            "chunks": [
                3
            ],
            "fill_value": null,
            "compressor": {
                "blocksize": 0,
                "id": "blosc",
                "clevel": 5,
                "cname": "lz4",
                "shuffle": 1
            }
        },
        "waterlevel/.zattrs": {
            "units": "m",
            "coordinates": "station_x_coordinate station_y_coordinate station_name",
            "add_offset": 0.0,
            "long_name": "water level",
            "_ARRAY_DIMENSIONS": [
                "time",
                "stations"
            ],
            "scale_factor": 0.001,
            "standard_name": "sea_surface_height",
            "_FillValue": -999.0
        },
        "station_y_coordinate/.zattrs": {
            "units": "m",
            "add_offset": 0.0,
            "long_name": "original y-coordinate of station (non-snapped)",
            "_ARRAY_DIMENSIONS": [
                "time",
                "stations"
            ],
            "scale_factor": 1.0,
            "standard_name": "projection_y_coordinate"
        },
        "waterlevel/.zarray": {
            "dtype": "<i2",
            "filters": null,
            "shape": [
                34561,
                3
            ],
            "order": "C",
            "zarr_format": 2,
            "chunks": [
                34561,
                3
            ],
            "fill_value": null,
            "compressor": {
                "blocksize": 0,
                "id": "blosc",
                "clevel": 5,
                "cname": "lz4",
                "shuffle": 1
            }
        },
        "station_x_coordinate/.zattrs": {
            "units": "m",
            "add_offset": 0.0,
            "long_name": "original x-coordinate of station (non-snapped)",
            "_ARRAY_DIMENSIONS": [
                "time",
                "stations"
            ],
            "scale_factor": 1.0,
            "standard_name": "projection_x_coordinate"
        },
        "station_y_coordinate/.zarray": {
            "dtype": "<f8",
            "filters": null,
            "shape": [
                34561,
                3
            ],
            "order": "C",
            "zarr_format": 2,
            "chunks": [
                34561,
                3
            ],
            "fill_value": null,
            "compressor": {
                "blocksize": 0,
                "id": "blosc",
                "clevel": 5,
                "cname": "lz4",
                "shuffle": 1
            }
        },
        "x_velocity/.zarray": {
            "dtype": "<i2",
            "filters": null,
            "shape": [
                34561,
                3
            ],
            "order": "C",
            "zarr_format": 2,
            "chunks": [
                34561,
                3
            ],
            "fill_value": null,
            "compressor": {
                "blocksize": 0,
                "id": "blosc",
                "clevel": 5,
                "cname": "lz4",
                "shuffle": 1
            }
        }
    }
}
